// Generated for: spectre
// Generated on: Apr 20 19:32:33 2023
// Design library name: lab3_dgarci23
// Design cell name: sim_adv_logic
// Design view name: schematic
simulator lang=spectre
global 0 vdd!
