// Generated for: spectre
// Generated on: Apr 18 11:49:56 2023
// Design library name: hw2_dgarci23
// Design cell name: sim_nand2
// Design view name: schematic
simulator lang=spectre
global 0 vdd!
